*SPEF "ieee 1481-1999"
*DESIGN "top"
*DATE "21:58:05 Tuesday September 09, 2025"
*VENDOR "The OpenROAD Project"
*PROGRAM "OpenROAD"
*VERSION "edf00dff99f6c40d67a30c0e22a8191c5d2ed9d6"
*DESIGN_FLOW "NAME_SCOPE LOCAL" "PIN_CAP NONE"
*DIVIDER /
*DELIMITER :
*BUS_DELIMITER []
*T_UNIT 1 NS
*C_UNIT 1 PF
*R_UNIT 1 OHM
*L_UNIT 1 HENRY

*NAME_MAP
*1 i_clk
*2 i_reset
*3 i_uartRx
*4 o_uartTx
*7 aluUnit\._000_
*8 aluUnit\._001_
*9 aluUnit\._002_
*10 aluUnit\._003_
*11 aluUnit\._004_
*12 aluUnit\._005_
*13 aluUnit\._006_
*14 aluUnit\._007_
*15 aluUnit\._008_
*16 aluUnit\._009_
*17 aluUnit\._010_
*18 aluUnit\._011_
*19 aluUnit\._012_
*20 aluUnit\._013_
*21 aluUnit\._014_
*22 aluUnit\._015_
*23 aluUnit\._016_
*24 aluUnit\._017_
*25 aluUnit\._018_
*26 aluUnit\._019_
*27 aluUnit\._020_
*28 aluUnit\._021_
*29 aluUnit\._022_
*30 aluUnit\._023_
*31 aluUnit\._024_
*32 aluUnit\._025_
*33 aluUnit\._026_
*34 aluUnit\._027_
*35 aluUnit\._028_
*36 aluUnit\._029_
*37 aluUnit\._030_
*38 aluUnit\._031_
*39 aluUnit\._032_
*40 aluUnit\._033_
*41 aluUnit\._034_
*42 aluUnit\._035_
*43 aluUnit\._036_
*44 aluUnit\._037_
*45 aluUnit\._038_
*46 aluUnit\._039_
*47 aluUnit\._040_
*48 aluUnit\._041_
*49 aluUnit\._042_
*50 aluUnit\._043_
*51 aluUnit\._044_
*52 aluUnit\._045_
*53 aluUnit\._046_
*54 aluUnit\._047_
*55 aluUnit\._048_
*56 aluUnit\._049_
*57 aluUnit\._050_
*58 aluUnit\._051_
*59 aluUnit\._052_
*60 aluUnit\._053_
*61 aluUnit\._054_
*62 aluUnit\._055_
*63 aluUnit\._056_
*64 aluUnit\._057_
*65 aluUnit\._058_
*66 aluUnit\._059_
*67 aluUnit\._060_
*68 aluUnit\._061_
*69 aluUnit\._062_
*70 aluUnit\._063_
*71 aluUnit\._064_
*72 aluUnit\._065_
*73 aluUnit\._066_
*74 aluUnit\._067_
*75 aluUnit\._068_
*76 aluUnit\._069_
*77 aluUnit\._070_
*78 aluUnit\._071_
*79 aluUnit\._072_
*80 aluUnit\._073_
*81 aluUnit\._074_
*82 aluUnit\._075_
*83 aluUnit\._076_
*84 aluUnit\._077_
*85 aluUnit\._078_
*86 aluUnit\._079_
*87 aluUnit\._080_
*88 aluUnit\._081_
*89 aluUnit\._082_
*90 aluUnit\._083_
*91 aluUnit\._084_
*92 aluUnit\._085_
*93 aluUnit\._086_
*94 aluUnit\._087_
*95 aluUnit\._088_
*96 aluUnit\._089_
*97 aluUnit\._090_
*98 aluUnit\._091_
*99 aluUnit\._092_
*100 aluUnit\._093_
*101 aluUnit\._094_
*102 aluUnit\._095_
*103 aluUnit\._096_
*104 aluUnit\._097_
*105 aluUnit\._098_
*106 aluUnit\._099_
*107 aluUnit\._100_
*108 aluUnit\._101_
*109 aluUnit\._102_
*110 aluUnit\._103_
*111 aluUnit\._104_
*112 aluUnit\._105_
*113 aluUnit\._106_
*114 aluUnit\._107_
*115 aluUnit\._108_
*116 aluUnit\._109_
*117 aluUnit\._110_
*118 aluUnit\._111_
*119 aluUnit\._112_
*120 aluUnit\._113_
*121 aluUnit\._114_
*122 aluUnit\._115_
*123 aluUnit\._116_
*124 aluUnit\._117_
*125 aluUnit\._118_
*126 aluUnit\._119_
*127 aluUnit\._120_
*128 aluUnit\._121_
*129 aluUnit\._122_
*130 aluUnit\._123_
*131 aluUnit\._124_
*132 aluUnit\._125_
*133 aluUnit\._126_
*134 aluUnit\._127_
*135 aluUnit\._128_
*136 aluUnit\._129_
*137 aluUnit\._130_
*138 aluUnit\._131_
*139 aluUnit\._132_
*140 aluUnit\._133_
*141 aluUnit\._134_
*142 aluUnit\._135_
*143 aluUnit\._136_
*144 aluUnit\._137_
*145 aluUnit\._138_
*146 aluUnit\._139_
*147 aluUnit\._140_
*148 aluUnit\._141_
*149 aluUnit\._142_
*150 aluUnit\._143_
*151 aluUnit\._144_
*152 aluUnit\._145_
*153 aluUnit\._146_
*154 aluUnit\._147_
*155 aluUnit\._148_
*156 aluUnit\._149_
*157 aluUnit\._150_
*158 aluUnit\._151_
*159 aluUnit\._152_
*160 aluUnit\._153_
*161 aluUnit\._154_
*162 aluUnit\._155_
*163 aluUnit\._156_
*164 aluUnit\._157_
*165 aluUnit\._158_
*166 aluUnit\._159_
*167 aluUnit\._160_
*168 aluUnit\._161_
*169 aluUnit\._162_
*170 aluUnit\.i_data_a\[0\]
*171 aluUnit\.i_data_a\[1\]
*172 aluUnit\.i_data_a\[2\]
*173 aluUnit\.i_data_a\[3\]
*174 aluUnit\.i_data_a\[4\]
*175 aluUnit\.i_data_a\[5\]
*176 aluUnit\.i_data_a\[6\]
*177 aluUnit\.i_data_a\[7\]
*178 aluUnit\.i_data_b\[0\]
*179 aluUnit\.i_data_b\[1\]
*180 aluUnit\.i_data_b\[2\]
*181 aluUnit\.i_data_b\[3\]
*182 aluUnit\.i_data_b\[4\]
*183 aluUnit\.i_data_b\[5\]
*184 aluUnit\.i_data_b\[6\]
*185 aluUnit\.i_data_b\[7\]
*186 aluUnit\.i_op\[0\]
*187 aluUnit\.i_op\[1\]
*188 aluUnit\.i_op\[2\]
*189 aluUnit\.i_op\[3\]
*190 aluUnit\.i_op\[4\]
*191 aluUnit\.i_op\[5\]
*192 aluUnit\.o_alu_result\[0\]
*193 aluUnit\.o_alu_result\[1\]
*194 aluUnit\.o_alu_result\[2\]
*195 aluUnit\.o_alu_result\[3\]
*196 aluUnit\.o_alu_result\[4\]
*197 aluUnit\.o_alu_result\[5\]
*198 aluUnit\.o_alu_result\[6\]
*199 aluUnit\.o_alu_result\[7\]
*200 alu_uart_interfaceUnit\._000_
*201 alu_uart_interfaceUnit\._001_
*202 alu_uart_interfaceUnit\._002_
*203 alu_uart_interfaceUnit\._003_
*204 alu_uart_interfaceUnit\._004_
*205 alu_uart_interfaceUnit\._005_
*206 alu_uart_interfaceUnit\._006_
*207 alu_uart_interfaceUnit\._007_
*208 alu_uart_interfaceUnit\._008_
*209 alu_uart_interfaceUnit\._009_
*210 alu_uart_interfaceUnit\._010_
*211 alu_uart_interfaceUnit\._011_
*212 alu_uart_interfaceUnit\._012_
*213 alu_uart_interfaceUnit\._013_
*214 alu_uart_interfaceUnit\._014_
*215 alu_uart_interfaceUnit\._015_
*216 alu_uart_interfaceUnit\._016_
*217 alu_uart_interfaceUnit\._017_
*218 alu_uart_interfaceUnit\._018_
*219 alu_uart_interfaceUnit\._019_
*220 alu_uart_interfaceUnit\._020_
*221 alu_uart_interfaceUnit\._021_
*222 alu_uart_interfaceUnit\._022_
*223 alu_uart_interfaceUnit\._023_
*224 alu_uart_interfaceUnit\._024_
*225 alu_uart_interfaceUnit\._025_
*226 alu_uart_interfaceUnit\._026_
*227 alu_uart_interfaceUnit\._027_
*228 alu_uart_interfaceUnit\._028_
*229 alu_uart_interfaceUnit\._029_
*230 alu_uart_interfaceUnit\._030_
*231 alu_uart_interfaceUnit\._031_
*232 alu_uart_interfaceUnit\._032_
*233 alu_uart_interfaceUnit\._033_
*234 alu_uart_interfaceUnit\._034_
*235 alu_uart_interfaceUnit\._035_
*236 alu_uart_interfaceUnit\._036_
*237 alu_uart_interfaceUnit\._037_
*238 alu_uart_interfaceUnit\._038_
*239 alu_uart_interfaceUnit\._039_
*240 alu_uart_interfaceUnit\._040_
*241 alu_uart_interfaceUnit\._041_
*242 alu_uart_interfaceUnit\._042_
*243 alu_uart_interfaceUnit\._043_
*244 alu_uart_interfaceUnit\._044_
*245 alu_uart_interfaceUnit\._045_
*246 alu_uart_interfaceUnit\._046_
*247 alu_uart_interfaceUnit\._047_
*248 alu_uart_interfaceUnit\._048_
*249 alu_uart_interfaceUnit\._049_
*250 alu_uart_interfaceUnit\._050_
*251 alu_uart_interfaceUnit\._051_
*252 alu_uart_interfaceUnit\._052_
*253 alu_uart_interfaceUnit\._053_
*254 alu_uart_interfaceUnit\._054_
*255 alu_uart_interfaceUnit\._055_
*256 alu_uart_interfaceUnit\._056_
*257 alu_uart_interfaceUnit\._057_
*258 alu_uart_interfaceUnit\._058_
*259 alu_uart_interfaceUnit\._059_
*260 alu_uart_interfaceUnit\._060_
*261 alu_uart_interfaceUnit\._061_
*262 alu_uart_interfaceUnit\._062_
*263 alu_uart_interfaceUnit\._063_
*264 alu_uart_interfaceUnit\._064_
*265 alu_uart_interfaceUnit\._065_
*266 alu_uart_interfaceUnit\._066_
*267 alu_uart_interfaceUnit\._067_
*268 alu_uart_interfaceUnit\._068_
*269 alu_uart_interfaceUnit\._069_
*270 alu_uart_interfaceUnit\._070_
*271 alu_uart_interfaceUnit\._071_
*272 alu_uart_interfaceUnit\._072_
*273 alu_uart_interfaceUnit\._073_
*274 alu_uart_interfaceUnit\._074_
*275 alu_uart_interfaceUnit\._075_
*276 alu_uart_interfaceUnit\._076_
*277 alu_uart_interfaceUnit\._077_
*278 alu_uart_interfaceUnit\._078_
*279 alu_uart_interfaceUnit\._079_
*280 alu_uart_interfaceUnit\._080_
*281 alu_uart_interfaceUnit\._081_
*282 alu_uart_interfaceUnit\._082_
*283 alu_uart_interfaceUnit\._083_
*284 alu_uart_interfaceUnit\._084_
*285 alu_uart_interfaceUnit\._085_
*286 alu_uart_interfaceUnit\._086_
*287 alu_uart_interfaceUnit\._087_
*288 alu_uart_interfaceUnit\._088_
*289 alu_uart_interfaceUnit\._089_
*290 alu_uart_interfaceUnit\._090_
*291 alu_uart_interfaceUnit\._091_
*292 alu_uart_interfaceUnit\._092_
*293 alu_uart_interfaceUnit\._093_
*294 alu_uart_interfaceUnit\.i_data_to_read\[0\]
*295 alu_uart_interfaceUnit\.i_data_to_read\[1\]
*296 alu_uart_interfaceUnit\.i_data_to_read\[2\]
*297 alu_uart_interfaceUnit\.i_data_to_read\[3\]
*298 alu_uart_interfaceUnit\.i_data_to_read\[4\]
*299 alu_uart_interfaceUnit\.i_data_to_read\[5\]
*300 alu_uart_interfaceUnit\.i_data_to_read\[6\]
*301 alu_uart_interfaceUnit\.i_data_to_read\[7\]
*302 alu_uart_interfaceUnit\.i_fifo_rx_empty
*303 alu_uart_interfaceUnit\.i_fifo_tx_full
*304 alu_uart_interfaceUnit\.o_data_to_write\[0\]
*305 alu_uart_interfaceUnit\.o_data_to_write\[1\]
*306 alu_uart_interfaceUnit\.o_data_to_write\[2\]
*307 alu_uart_interfaceUnit\.o_data_to_write\[3\]
*308 alu_uart_interfaceUnit\.o_data_to_write\[4\]
*309 alu_uart_interfaceUnit\.o_data_to_write\[5\]
*310 alu_uart_interfaceUnit\.o_data_to_write\[6\]
*311 alu_uart_interfaceUnit\.o_data_to_write\[7\]
*312 alu_uart_interfaceUnit\.o_fifo_rx_read
*313 alu_uart_interfaceUnit\.o_fifo_tx_write
*314 alu_uart_interfaceUnit\.state\[0\]
*315 alu_uart_interfaceUnit\.state\[1\]
*316 alu_uart_interfaceUnit\.state\[2\]
*317 alu_uart_interfaceUnit\.state\[3\]
*318 alu_uart_interfaceUnit\.wait_reg\[0\]
*319 alu_uart_interfaceUnit\.wait_reg\[1\]
*320 net1
*321 net10
*322 net11
*323 net12
*324 net13
*325 net14
*326 net15
*327 net16
*328 net17
*329 net18
*330 net19
*331 net2
*332 net20
*333 net21
*334 net22
*335 net23
*336 net24
*337 net25
*338 net26
*339 net27
*340 net28
*341 net29
*342 net3
*343 net30
*344 net31
*345 net32
*346 net33
*347 net34
*348 net35
*349 net36
*350 net37
*351 net38
*352 net39
*353 net4
*354 net40
*355 net41
*356 net42
*357 net43
*358 net44
*359 net45
*360 net46
*361 net47
*362 net48
*363 net49
*364 net5
*365 net50
*366 net51
*367 net52
*368 net53
*369 net54
*370 net55
*371 net56
*372 net57
*373 net58
*374 net59
*375 net6
*376 net60
*377 net61
*378 net62
*379 net63
*380 net7
*381 net8
*382 net9
*383 uartUnit\.baud_rateUnit\._00_
*384 uartUnit\.baud_rateUnit\._01_
*385 uartUnit\.baud_rateUnit\._02_
*386 uartUnit\.baud_rateUnit\._03_
*387 uartUnit\.baud_rateUnit\._04_
*388 uartUnit\.baud_rateUnit\._05_
*389 uartUnit\.baud_rateUnit\._06_
*390 uartUnit\.baud_rateUnit\._07_
*391 uartUnit\.baud_rateUnit\._08_
*392 uartUnit\.baud_rateUnit\._09_
*393 uartUnit\.baud_rateUnit\._10_
*394 uartUnit\.baud_rateUnit\._11_
*395 uartUnit\.baud_rateUnit\._12_
*396 uartUnit\.baud_rateUnit\._13_
*397 uartUnit\.baud_rateUnit\._14_
*398 uartUnit\.baud_rateUnit\._15_
*399 uartUnit\.baud_rateUnit\._16_
*400 uartUnit\.baud_rateUnit\._17_
*401 uartUnit\.baud_rateUnit\._18_
*402 uartUnit\.baud_rateUnit\._19_
*403 uartUnit\.baud_rateUnit\._20_
*404 uartUnit\.baud_rateUnit\._21_
*405 uartUnit\.baud_rateUnit\._22_
*406 uartUnit\.baud_rateUnit\._23_
*407 uartUnit\.baud_rateUnit\._24_
*408 uartUnit\.baud_rateUnit\._25_
*409 uartUnit\.baud_rateUnit\._26_
*410 uartUnit\.baud_rateUnit\._27_
*411 uartUnit\.baud_rateUnit\._28_
*412 uartUnit\.baud_rateUnit\._29_
*413 uartUnit\.baud_rateUnit\.counter\[0\]
*414 uartUnit\.baud_rateUnit\.counter\[1\]
*415 uartUnit\.baud_rateUnit\.counter\[2\]
*416 uartUnit\.baud_rateUnit\.counter\[3\]
*417 uartUnit\.baud_rateUnit\.counter\[4\]
*418 uartUnit\.baud_rateUnit\.counter\[5\]
*419 uartUnit\.baud_rateUnit\.counter\[6\]
*420 uartUnit\.baud_rateUnit\.counter\[7\]
*421 uartUnit\.baud_rateUnit\.counter\[8\]
*422 uartUnit\.baud_rateUnit\.o_tick
*423 uartUnit\.fifoRX\._000_
*424 uartUnit\.fifoRX\._001_
*425 uartUnit\.fifoRX\._002_
*426 uartUnit\.fifoRX\._003_
*427 uartUnit\.fifoRX\._004_
*428 uartUnit\.fifoRX\._005_
*429 uartUnit\.fifoRX\._006_
*430 uartUnit\.fifoRX\._007_
*431 uartUnit\.fifoRX\._008_
*432 uartUnit\.fifoRX\._009_
*433 uartUnit\.fifoRX\._010_
*434 uartUnit\.fifoRX\._011_
*435 uartUnit\.fifoRX\._012_
*436 uartUnit\.fifoRX\._013_
*437 uartUnit\.fifoRX\._014_
*438 uartUnit\.fifoRX\._015_
*439 uartUnit\.fifoRX\._016_
*440 uartUnit\.fifoRX\._017_
*441 uartUnit\.fifoRX\._018_
*442 uartUnit\.fifoRX\._019_
*443 uartUnit\.fifoRX\._020_
*444 uartUnit\.fifoRX\._021_
*445 uartUnit\.fifoRX\._022_
*446 uartUnit\.fifoRX\._023_
*447 uartUnit\.fifoRX\._024_
*448 uartUnit\.fifoRX\._025_
*449 uartUnit\.fifoRX\._026_
*450 uartUnit\.fifoRX\._027_
*451 uartUnit\.fifoRX\._028_
*452 uartUnit\.fifoRX\._029_
*453 uartUnit\.fifoRX\._030_
*454 uartUnit\.fifoRX\._031_
*455 uartUnit\.fifoRX\._032_
*456 uartUnit\.fifoRX\._033_
*457 uartUnit\.fifoRX\._034_
*458 uartUnit\.fifoRX\._035_
*459 uartUnit\.fifoRX\._036_
*460 uartUnit\.fifoRX\._037_
*461 uartUnit\.fifoRX\._038_
*462 uartUnit\.fifoRX\._039_
*463 uartUnit\.fifoRX\._040_
*464 uartUnit\.fifoRX\._041_
*465 uartUnit\.fifoRX\._042_
*466 uartUnit\.fifoRX\._043_
*467 uartUnit\.fifoRX\._044_
*468 uartUnit\.fifoRX\._045_
*469 uartUnit\.fifoRX\._046_
*470 uartUnit\.fifoRX\._047_
*471 uartUnit\.fifoRX\._048_
*472 uartUnit\.fifoRX\._049_
*473 uartUnit\.fifoRX\._050_
*474 uartUnit\.fifoRX\._051_
*475 uartUnit\.fifoRX\._052_
*476 uartUnit\.fifoRX\._053_
*477 uartUnit\.fifoRX\._054_
*478 uartUnit\.fifoRX\._055_
*479 uartUnit\.fifoRX\._056_
*480 uartUnit\.fifoRX\._057_
*481 uartUnit\.fifoRX\._058_
*482 uartUnit\.fifoRX\._059_
*483 uartUnit\.fifoRX\._060_
*484 uartUnit\.fifoRX\._061_
*485 uartUnit\.fifoRX\._062_
*486 uartUnit\.fifoRX\._063_
*487 uartUnit\.fifoRX\._064_
*488 uartUnit\.fifoRX\.array\[0\]\[0\]
*489 uartUnit\.fifoRX\.array\[0\]\[1\]
*490 uartUnit\.fifoRX\.array\[0\]\[2\]
*491 uartUnit\.fifoRX\.array\[0\]\[3\]
*492 uartUnit\.fifoRX\.array\[0\]\[4\]
*493 uartUnit\.fifoRX\.array\[0\]\[5\]
*494 uartUnit\.fifoRX\.array\[0\]\[6\]
*495 uartUnit\.fifoRX\.array\[0\]\[7\]
*496 uartUnit\.fifoRX\.array\[1\]\[0\]
*497 uartUnit\.fifoRX\.array\[1\]\[1\]
*498 uartUnit\.fifoRX\.array\[1\]\[2\]
*499 uartUnit\.fifoRX\.array\[1\]\[3\]
*500 uartUnit\.fifoRX\.array\[1\]\[4\]
*501 uartUnit\.fifoRX\.array\[1\]\[5\]
*502 uartUnit\.fifoRX\.array\[1\]\[6\]
*503 uartUnit\.fifoRX\.array\[1\]\[7\]
*504 uartUnit\.fifoRX\.array\[2\]\[0\]
*505 uartUnit\.fifoRX\.array\[2\]\[1\]
*506 uartUnit\.fifoRX\.array\[2\]\[2\]
*507 uartUnit\.fifoRX\.array\[2\]\[3\]
*508 uartUnit\.fifoRX\.array\[2\]\[4\]
*509 uartUnit\.fifoRX\.array\[2\]\[5\]
*510 uartUnit\.fifoRX\.array\[2\]\[6\]
*511 uartUnit\.fifoRX\.array\[2\]\[7\]
*512 uartUnit\.fifoRX\.array\[3\]\[0\]
*513 uartUnit\.fifoRX\.array\[3\]\[1\]
*514 uartUnit\.fifoRX\.array\[3\]\[2\]
*515 uartUnit\.fifoRX\.array\[3\]\[3\]
*516 uartUnit\.fifoRX\.array\[3\]\[4\]
*517 uartUnit\.fifoRX\.array\[3\]\[5\]
*518 uartUnit\.fifoRX\.array\[3\]\[6\]
*519 uartUnit\.fifoRX\.array\[3\]\[7\]
*520 uartUnit\.fifoRX\.i_data_to_write\[0\]
*521 uartUnit\.fifoRX\.i_data_to_write\[1\]
*522 uartUnit\.fifoRX\.i_data_to_write\[2\]
*523 uartUnit\.fifoRX\.i_data_to_write\[3\]
*524 uartUnit\.fifoRX\.i_data_to_write\[4\]
*525 uartUnit\.fifoRX\.i_data_to_write\[5\]
*526 uartUnit\.fifoRX\.i_data_to_write\[6\]
*527 uartUnit\.fifoRX\.i_data_to_write\[7\]
*528 uartUnit\.fifoRX\.i_write_fifo
*529 uartUnit\.fifoRX\.o_fifo_is_full
*530 uartUnit\.fifoRX\.read_ptr\[0\]
*531 uartUnit\.fifoRX\.read_ptr\[1\]
*532 uartUnit\.fifoRX\.write_ptr\[0\]
*533 uartUnit\.fifoRX\.write_ptr\[1\]
*534 uartUnit\.fifoTX\._000_
*535 uartUnit\.fifoTX\._001_
*536 uartUnit\.fifoTX\._002_
*537 uartUnit\.fifoTX\._003_
*538 uartUnit\.fifoTX\._004_
*539 uartUnit\.fifoTX\._005_
*540 uartUnit\.fifoTX\._006_
*541 uartUnit\.fifoTX\._007_
*542 uartUnit\.fifoTX\._008_
*543 uartUnit\.fifoTX\._009_
*544 uartUnit\.fifoTX\._010_
*545 uartUnit\.fifoTX\._011_
*546 uartUnit\.fifoTX\._012_
*547 uartUnit\.fifoTX\._013_
*548 uartUnit\.fifoTX\._014_
*549 uartUnit\.fifoTX\._015_
*550 uartUnit\.fifoTX\._016_
*551 uartUnit\.fifoTX\._017_
*552 uartUnit\.fifoTX\._018_
*553 uartUnit\.fifoTX\._019_
*554 uartUnit\.fifoTX\._020_
*555 uartUnit\.fifoTX\._021_
*556 uartUnit\.fifoTX\._022_
*557 uartUnit\.fifoTX\._023_
*558 uartUnit\.fifoTX\._024_
*559 uartUnit\.fifoTX\._025_
*560 uartUnit\.fifoTX\._026_
*561 uartUnit\.fifoTX\._027_
*562 uartUnit\.fifoTX\._028_
*563 uartUnit\.fifoTX\._029_
*564 uartUnit\.fifoTX\._030_
*565 uartUnit\.fifoTX\._031_
*566 uartUnit\.fifoTX\._032_
*567 uartUnit\.fifoTX\._033_
*568 uartUnit\.fifoTX\._034_
*569 uartUnit\.fifoTX\._035_
*570 uartUnit\.fifoTX\._036_
*571 uartUnit\.fifoTX\._037_
*572 uartUnit\.fifoTX\._038_
*573 uartUnit\.fifoTX\._039_
*574 uartUnit\.fifoTX\._040_
*575 uartUnit\.fifoTX\._041_
*576 uartUnit\.fifoTX\._042_
*577 uartUnit\.fifoTX\._043_
*578 uartUnit\.fifoTX\._044_
*579 uartUnit\.fifoTX\._045_
*580 uartUnit\.fifoTX\._046_
*581 uartUnit\.fifoTX\._047_
*582 uartUnit\.fifoTX\._048_
*583 uartUnit\.fifoTX\._049_
*584 uartUnit\.fifoTX\._050_
*585 uartUnit\.fifoTX\._051_
*586 uartUnit\.fifoTX\._052_
*587 uartUnit\.fifoTX\._053_
*588 uartUnit\.fifoTX\._054_
*589 uartUnit\.fifoTX\._055_
*590 uartUnit\.fifoTX\._056_
*591 uartUnit\.fifoTX\._057_
*592 uartUnit\.fifoTX\._058_
*593 uartUnit\.fifoTX\._059_
*594 uartUnit\.fifoTX\._060_
*595 uartUnit\.fifoTX\._061_
*596 uartUnit\.fifoTX\._062_
*597 uartUnit\.fifoTX\._063_
*598 uartUnit\.fifoTX\._064_
*599 uartUnit\.fifoTX\.array\[0\]\[0\]
*600 uartUnit\.fifoTX\.array\[0\]\[1\]
*601 uartUnit\.fifoTX\.array\[0\]\[2\]
*602 uartUnit\.fifoTX\.array\[0\]\[3\]
*603 uartUnit\.fifoTX\.array\[0\]\[4\]
*604 uartUnit\.fifoTX\.array\[0\]\[5\]
*605 uartUnit\.fifoTX\.array\[0\]\[6\]
*606 uartUnit\.fifoTX\.array\[0\]\[7\]
*607 uartUnit\.fifoTX\.array\[1\]\[0\]
*608 uartUnit\.fifoTX\.array\[1\]\[1\]
*609 uartUnit\.fifoTX\.array\[1\]\[2\]
*610 uartUnit\.fifoTX\.array\[1\]\[3\]
*611 uartUnit\.fifoTX\.array\[1\]\[4\]
*612 uartUnit\.fifoTX\.array\[1\]\[5\]
*613 uartUnit\.fifoTX\.array\[1\]\[6\]
*614 uartUnit\.fifoTX\.array\[1\]\[7\]
*615 uartUnit\.fifoTX\.array\[2\]\[0\]
*616 uartUnit\.fifoTX\.array\[2\]\[1\]
*617 uartUnit\.fifoTX\.array\[2\]\[2\]
*618 uartUnit\.fifoTX\.array\[2\]\[3\]
*619 uartUnit\.fifoTX\.array\[2\]\[4\]
*620 uartUnit\.fifoTX\.array\[2\]\[5\]
*621 uartUnit\.fifoTX\.array\[2\]\[6\]
*622 uartUnit\.fifoTX\.array\[2\]\[7\]
*623 uartUnit\.fifoTX\.array\[3\]\[0\]
*624 uartUnit\.fifoTX\.array\[3\]\[1\]
*625 uartUnit\.fifoTX\.array\[3\]\[2\]
*626 uartUnit\.fifoTX\.array\[3\]\[3\]
*627 uartUnit\.fifoTX\.array\[3\]\[4\]
*628 uartUnit\.fifoTX\.array\[3\]\[5\]
*629 uartUnit\.fifoTX\.array\[3\]\[6\]
*630 uartUnit\.fifoTX\.array\[3\]\[7\]
*631 uartUnit\.fifoTX\.i_read_fifo
*632 uartUnit\.fifoTX\.o_data_to_read\[0\]
*633 uartUnit\.fifoTX\.o_data_to_read\[1\]
*634 uartUnit\.fifoTX\.o_data_to_read\[2\]
*635 uartUnit\.fifoTX\.o_data_to_read\[3\]
*636 uartUnit\.fifoTX\.o_data_to_read\[4\]
*637 uartUnit\.fifoTX\.o_data_to_read\[5\]
*638 uartUnit\.fifoTX\.o_data_to_read\[6\]
*639 uartUnit\.fifoTX\.o_data_to_read\[7\]
*640 uartUnit\.fifoTX\.o_fifo_is_empty
*641 uartUnit\.fifoTX\.read_ptr\[0\]
*642 uartUnit\.fifoTX\.read_ptr\[1\]
*643 uartUnit\.fifoTX\.write_ptr\[0\]
*644 uartUnit\.fifoTX\.write_ptr\[1\]
*645 uartUnit\.tx_not_empty
*646 uartUnit\.uartRxUnit\._000_
*647 uartUnit\.uartRxUnit\._001_
*648 uartUnit\.uartRxUnit\._002_
*649 uartUnit\.uartRxUnit\._003_
*650 uartUnit\.uartRxUnit\._004_
*651 uartUnit\.uartRxUnit\._005_
*652 uartUnit\.uartRxUnit\._006_
*653 uartUnit\.uartRxUnit\._007_
*654 uartUnit\.uartRxUnit\._008_
*655 uartUnit\.uartRxUnit\._009_
*656 uartUnit\.uartRxUnit\._010_
*657 uartUnit\.uartRxUnit\._011_
*658 uartUnit\.uartRxUnit\._012_
*659 uartUnit\.uartRxUnit\._013_
*660 uartUnit\.uartRxUnit\._014_
*661 uartUnit\.uartRxUnit\._015_
*662 uartUnit\.uartRxUnit\._016_
*663 uartUnit\.uartRxUnit\._017_
*664 uartUnit\.uartRxUnit\._018_
*665 uartUnit\.uartRxUnit\._019_
*666 uartUnit\.uartRxUnit\._020_
*667 uartUnit\.uartRxUnit\._021_
*668 uartUnit\.uartRxUnit\._022_
*669 uartUnit\.uartRxUnit\._023_
*670 uartUnit\.uartRxUnit\._024_
*671 uartUnit\.uartRxUnit\._025_
*672 uartUnit\.uartRxUnit\._026_
*673 uartUnit\.uartRxUnit\._027_
*674 uartUnit\.uartRxUnit\._028_
*675 uartUnit\.uartRxUnit\._029_
*676 uartUnit\.uartRxUnit\._030_
*677 uartUnit\.uartRxUnit\._031_
*678 uartUnit\.uartRxUnit\._032_
*679 uartUnit\.uartRxUnit\._033_
*680 uartUnit\.uartRxUnit\._034_
*681 uartUnit\.uartRxUnit\._035_
*682 uartUnit\.uartRxUnit\._036_
*683 uartUnit\.uartRxUnit\._037_
*684 uartUnit\.uartRxUnit\._038_
*685 uartUnit\.uartRxUnit\._039_
*686 uartUnit\.uartRxUnit\._040_
*687 uartUnit\.uartRxUnit\._041_
*688 uartUnit\.uartRxUnit\._042_
*689 uartUnit\.uartRxUnit\._043_
*690 uartUnit\.uartRxUnit\._044_
*691 uartUnit\.uartRxUnit\._045_
*692 uartUnit\.uartRxUnit\._046_
*693 uartUnit\.uartRxUnit\._047_
*694 uartUnit\.uartRxUnit\._048_
*695 uartUnit\.uartRxUnit\._049_
*696 uartUnit\.uartRxUnit\._050_
*697 uartUnit\.uartRxUnit\._051_
*698 uartUnit\.uartRxUnit\._052_
*699 uartUnit\.uartRxUnit\._053_
*700 uartUnit\.uartRxUnit\._054_
*701 uartUnit\.uartRxUnit\._055_
*702 uartUnit\.uartRxUnit\._056_
*703 uartUnit\.uartRxUnit\._057_
*704 uartUnit\.uartRxUnit\._058_
*705 uartUnit\.uartRxUnit\._059_
*706 uartUnit\.uartRxUnit\._060_
*707 uartUnit\.uartRxUnit\._061_
*708 uartUnit\.uartRxUnit\._062_
*709 uartUnit\.uartRxUnit\._063_
*710 uartUnit\.uartRxUnit\._064_
*711 uartUnit\.uartRxUnit\._065_
*712 uartUnit\.uartRxUnit\._066_
*713 uartUnit\.uartRxUnit\._067_
*714 uartUnit\.uartRxUnit\.n\[0\]
*715 uartUnit\.uartRxUnit\.n\[1\]
*716 uartUnit\.uartRxUnit\.n\[2\]
*717 uartUnit\.uartRxUnit\.s\[0\]
*718 uartUnit\.uartRxUnit\.s\[1\]
*719 uartUnit\.uartRxUnit\.s\[2\]
*720 uartUnit\.uartRxUnit\.s\[3\]
*721 uartUnit\.uartRxUnit\.state\[0\]
*722 uartUnit\.uartRxUnit\.state\[1\]
*723 uartUnit\.uartRxUnit\.state\[2\]
*724 uartUnit\.uartRxUnit\.state\[3\]
*725 uartUnit\.uartTxUnit\._000_
*726 uartUnit\.uartTxUnit\._001_
*727 uartUnit\.uartTxUnit\._002_
*728 uartUnit\.uartTxUnit\._003_
*729 uartUnit\.uartTxUnit\._004_
*730 uartUnit\.uartTxUnit\._005_
*731 uartUnit\.uartTxUnit\._006_
*732 uartUnit\.uartTxUnit\._007_
*733 uartUnit\.uartTxUnit\._008_
*734 uartUnit\.uartTxUnit\._009_
*735 uartUnit\.uartTxUnit\._010_
*736 uartUnit\.uartTxUnit\._011_
*737 uartUnit\.uartTxUnit\._012_
*738 uartUnit\.uartTxUnit\._013_
*739 uartUnit\.uartTxUnit\._014_
*740 uartUnit\.uartTxUnit\._015_
*741 uartUnit\.uartTxUnit\._016_
*742 uartUnit\.uartTxUnit\._017_
*743 uartUnit\.uartTxUnit\._018_
*744 uartUnit\.uartTxUnit\._019_
*745 uartUnit\.uartTxUnit\._020_
*746 uartUnit\.uartTxUnit\._021_
*747 uartUnit\.uartTxUnit\._022_
*748 uartUnit\.uartTxUnit\._023_
*749 uartUnit\.uartTxUnit\._024_
*750 uartUnit\.uartTxUnit\._025_
*751 uartUnit\.uartTxUnit\._026_
*752 uartUnit\.uartTxUnit\._027_
*753 uartUnit\.uartTxUnit\._028_
*754 uartUnit\.uartTxUnit\._029_
*755 uartUnit\.uartTxUnit\._030_
*756 uartUnit\.uartTxUnit\._031_
*757 uartUnit\.uartTxUnit\._032_
*758 uartUnit\.uartTxUnit\._033_
*759 uartUnit\.uartTxUnit\._034_
*760 uartUnit\.uartTxUnit\._035_
*761 uartUnit\.uartTxUnit\._036_
*762 uartUnit\.uartTxUnit\._037_
*763 uartUnit\.uartTxUnit\._038_
*764 uartUnit\.uartTxUnit\._039_
*765 uartUnit\.uartTxUnit\._040_
*766 uartUnit\.uartTxUnit\._041_
*767 uartUnit\.uartTxUnit\._042_
*768 uartUnit\.uartTxUnit\._043_
*769 uartUnit\.uartTxUnit\._044_
*770 uartUnit\.uartTxUnit\._045_
*771 uartUnit\.uartTxUnit\._046_
*772 uartUnit\.uartTxUnit\._047_
*773 uartUnit\.uartTxUnit\._048_
*774 uartUnit\.uartTxUnit\._049_
*775 uartUnit\.uartTxUnit\._050_
*776 uartUnit\.uartTxUnit\._051_
*777 uartUnit\.uartTxUnit\._052_
*778 uartUnit\.uartTxUnit\._053_
*779 uartUnit\.uartTxUnit\._054_
*780 uartUnit\.uartTxUnit\._055_
*781 uartUnit\.uartTxUnit\._056_
*782 uartUnit\.uartTxUnit\._057_
*783 uartUnit\.uartTxUnit\._058_
*784 uartUnit\.uartTxUnit\._059_
*785 uartUnit\.uartTxUnit\._060_
*786 uartUnit\.uartTxUnit\._061_
*787 uartUnit\.uartTxUnit\._062_
*788 uartUnit\.uartTxUnit\._063_
*789 uartUnit\.uartTxUnit\._064_
*790 uartUnit\.uartTxUnit\._065_
*791 uartUnit\.uartTxUnit\._066_
*792 uartUnit\.uartTxUnit\._067_
*793 uartUnit\.uartTxUnit\._068_
*794 uartUnit\.uartTxUnit\._069_
*795 uartUnit\.uartTxUnit\._070_
*796 uartUnit\.uartTxUnit\._071_
*797 uartUnit\.uartTxUnit\._072_
*798 uartUnit\.uartTxUnit\._073_
*799 uartUnit\.uartTxUnit\._074_
*800 uartUnit\.uartTxUnit\._075_
*801 uartUnit\.uartTxUnit\._076_
*802 uartUnit\.uartTxUnit\.n\[0\]
*803 uartUnit\.uartTxUnit\.n\[1\]
*804 uartUnit\.uartTxUnit\.n\[2\]
*805 uartUnit\.uartTxUnit\.s\[0\]
*806 uartUnit\.uartTxUnit\.s\[1\]
*807 uartUnit\.uartTxUnit\.s\[2\]
*808 uartUnit\.uartTxUnit\.s\[3\]
*809 uartUnit\.uartTxUnit\.send_byte\[0\]
*810 uartUnit\.uartTxUnit\.send_byte\[1\]
*811 uartUnit\.uartTxUnit\.send_byte\[2\]
*812 uartUnit\.uartTxUnit\.send_byte\[3\]
*813 uartUnit\.uartTxUnit\.send_byte\[4\]
*814 uartUnit\.uartTxUnit\.send_byte\[5\]
*815 uartUnit\.uartTxUnit\.send_byte\[6\]
*816 uartUnit\.uartTxUnit\.send_byte\[7\]
*817 uartUnit\.uartTxUnit\.state\[0\]
*818 uartUnit\.uartTxUnit\.state\[1\]
*819 uartUnit\.uartTxUnit\.state\[2\]
*820 uartUnit\.uartTxUnit\.state\[3\]
*821 FILLER_0_109
*822 FILLER_0_113
*823 FILLER_0_125
*824 FILLER_0_137
*825 FILLER_0_141
*826 FILLER_0_15
*827 FILLER_0_153
*828 FILLER_0_165
*829 FILLER_0_169
*830 FILLER_0_181
*831 FILLER_0_193
*832 FILLER_0_197
*833 FILLER_0_209
*834 FILLER_0_221
*835 FILLER_0_225
*836 FILLER_0_237
*837 FILLER_0_249
*838 FILLER_0_253
*839 FILLER_0_265
*840 FILLER_0_27
*841 FILLER_0_277
*842 FILLER_0_281
*843 FILLER_0_289
*844 FILLER_0_29
*845 FILLER_0_3
*846 FILLER_0_41
*847 FILLER_0_51
*848 FILLER_0_55
*849 FILLER_0_57
*850 FILLER_0_69
*851 FILLER_0_81
*852 FILLER_0_85
*853 FILLER_0_97
*854 FILLER_10_104
*855 FILLER_10_116
*856 FILLER_10_124
*857 FILLER_10_134
*858 FILLER_10_141
*859 FILLER_10_149
*860 FILLER_10_192
*861 FILLER_10_20
*862 FILLER_10_205
*863 FILLER_10_219
*864 FILLER_10_231
*865 FILLER_10_239
*866 FILLER_10_249
*867 FILLER_10_270
*868 FILLER_10_282
*869 FILLER_10_290
*870 FILLER_10_3
*871 FILLER_10_38
*872 FILLER_10_46
*873 FILLER_10_53
*874 FILLER_10_70
*875 FILLER_10_74
*876 FILLER_10_79
*877 FILLER_10_83
*878 FILLER_10_85
*879 FILLER_10_93
*880 FILLER_11_105
*881 FILLER_11_111
*882 FILLER_11_113
*883 FILLER_11_140
*884 FILLER_11_152
*885 FILLER_11_164
*886 FILLER_11_175
*887 FILLER_11_185
*888 FILLER_11_189
*889 FILLER_11_205
*890 FILLER_11_211
*891 FILLER_11_220
*892 FILLER_11_243
*893 FILLER_11_253
*894 FILLER_11_277
*895 FILLER_11_281
*896 FILLER_11_289
*897 FILLER_11_3
*898 FILLER_11_42
*899 FILLER_11_54
*900 FILLER_11_57
*901 FILLER_11_69
*902 FILLER_11_81
*903 FILLER_11_93
*904 FILLER_12_109
*905 FILLER_12_121
*906 FILLER_12_125
*907 FILLER_12_134
*908 FILLER_12_141
*909 FILLER_12_153
*910 FILLER_12_176
*911 FILLER_12_197
*912 FILLER_12_20
*913 FILLER_12_203
*914 FILLER_12_225
*915 FILLER_12_249
*916 FILLER_12_279
*917 FILLER_12_3
*918 FILLER_12_45
*919 FILLER_12_51
*920 FILLER_12_65
*921 FILLER_12_77
*922 FILLER_12_83
*923 FILLER_12_85
*924 FILLER_12_97
*925 FILLER_13_102
*926 FILLER_13_11
*927 FILLER_13_110
*928 FILLER_13_113
*929 FILLER_13_141
*930 FILLER_13_145
*931 FILLER_13_151
*932 FILLER_13_165
*933 FILLER_13_173
*934 FILLER_13_185
*935 FILLER_13_197
*936 FILLER_13_209
*937 FILLER_13_216
*938 FILLER_13_222
*939 FILLER_13_225
*940 FILLER_13_23
*941 FILLER_13_232
*942 FILLER_13_244
*943 FILLER_13_256
*944 FILLER_13_261
*945 FILLER_13_281
*946 FILLER_13_289
*947 FILLER_13_3
*948 FILLER_13_31
*949 FILLER_13_43
*950 FILLER_13_73
*951 FILLER_13_92
*952 FILLER_14_105
*953 FILLER_14_117
*954 FILLER_14_141
*955 FILLER_14_15
*956 FILLER_14_166
*957 FILLER_14_178
*958 FILLER_14_182
*959 FILLER_14_192
*960 FILLER_14_197
*961 FILLER_14_209
*962 FILLER_14_221
*963 FILLER_14_229
*964 FILLER_14_237
*965 FILLER_14_241
*966 FILLER_14_245
*967 FILLER_14_251
*968 FILLER_14_253
*969 FILLER_14_26
*970 FILLER_14_261
*971 FILLER_14_269
*972 FILLER_14_283
*973 FILLER_14_29
*974 FILLER_14_3
*975 FILLER_14_41
*976 FILLER_14_53
*977 FILLER_14_85
*978 FILLER_15_111
*979 FILLER_15_113
*980 FILLER_15_121
*981 FILLER_15_142
*982 FILLER_15_154
*983 FILLER_15_166
*984 FILLER_15_169
*985 FILLER_15_175
*986 FILLER_15_180
*987 FILLER_15_194
*988 FILLER_15_206
*989 FILLER_15_218
*990 FILLER_15_22
*991 FILLER_15_225
*992 FILLER_15_243
*993 FILLER_15_255
*994 FILLER_15_26
*995 FILLER_15_263
*996 FILLER_15_281
*997 FILLER_15_289
*998 FILLER_15_3
*999 FILLER_15_43
*1000 FILLER_15_57
*1001 FILLER_15_67
*1002 FILLER_15_73
*1003 FILLER_16_112
*1004 FILLER_16_131
*1005 FILLER_16_141
*1006 FILLER_16_155
*1007 FILLER_16_163
*1008 FILLER_16_171
*1009 FILLER_16_177
*1010 FILLER_16_190
*1011 FILLER_16_197
*1012 FILLER_16_21
*1013 FILLER_16_219
*1014 FILLER_16_225
*1015 FILLER_16_231
*1016 FILLER_16_244
*1017 FILLER_16_251
*1018 FILLER_16_253
*1019 FILLER_16_27
*1020 FILLER_16_287
*1021 FILLER_16_29
*1022 FILLER_16_3
*1023 FILLER_16_71
*1024 FILLER_16_83
*1025 FILLER_16_85
*1026 FILLER_17_100
*1027 FILLER_17_113
*1028 FILLER_17_130
*1029 FILLER_17_164
*1030 FILLER_17_196
*1031 FILLER_17_222
*1032 FILLER_17_225
*1033 FILLER_17_255
*1034 FILLER_17_265
*1035 FILLER_17_278
*1036 FILLER_17_281
*1037 FILLER_17_289
*1038 FILLER_17_3
*1039 FILLER_17_42
*1040 FILLER_17_54
*1041 FILLER_17_73
*1042 FILLER_17_85
*1043 FILLER_18_106
*1044 FILLER_18_118
*1045 FILLER_18_130
*1046 FILLER_18_134
*1047 FILLER_18_15
*1048 FILLER_18_157
*1049 FILLER_18_169
*1050 FILLER_18_177
*1051 FILLER_18_183
*1052 FILLER_18_195
*1053 FILLER_18_197
*1054 FILLER_18_209
*1055 FILLER_18_221
*1056 FILLER_18_242
*1057 FILLER_18_247
*1058 FILLER_18_251
*1059 FILLER_18_253
*1060 FILLER_18_26
*1061 FILLER_18_265
*1062 FILLER_18_277
*1063 FILLER_18_289
*1064 FILLER_18_29
*1065 FILLER_18_3
*1066 FILLER_18_41
*1067 FILLER_18_53
*1068 FILLER_18_65
*1069 FILLER_18_77
*1070 FILLER_18_83
*1071 FILLER_18_94
*1072 FILLER_19_103
*1073 FILLER_19_11
*1074 FILLER_19_111
*1075 FILLER_19_113
*1076 FILLER_19_120
*1077 FILLER_19_129
*1078 FILLER_19_141
*1079 FILLER_19_152
*1080 FILLER_19_164
*1081 FILLER_19_169
*1082 FILLER_19_181
*1083 FILLER_19_193
*1084 FILLER_19_205
*1085 FILLER_19_217
*1086 FILLER_19_223
*1087 FILLER_19_225
*1088 FILLER_19_23
*1089 FILLER_19_237
*1090 FILLER_19_249
*1091 FILLER_19_261
*1092 FILLER_19_273
*1093 FILLER_19_279
*1094 FILLER_19_281
*1095 FILLER_19_289
*1096 FILLER_19_3
*1097 FILLER_19_35
*1098 FILLER_19_47
*1099 FILLER_19_55
*1100 FILLER_19_57
*1101 FILLER_19_67
*1102 FILLER_19_91
*1103 FILLER_1_107
*1104 FILLER_1_111
*1105 FILLER_1_113
*1106 FILLER_1_121
*1107 FILLER_1_138
*1108 FILLER_1_15
*1109 FILLER_1_150
*1110 FILLER_1_158
*1111 FILLER_1_164
*1112 FILLER_1_169
*1113 FILLER_1_188
*1114 FILLER_1_200
*1115 FILLER_1_209
*1116 FILLER_1_221