* NGSPICE file created from top.ext - technology: sky130A

* Black-box entry subcircuit for sky130_fd_sc_hd__dfxtp_1 abstract view
.subckt sky130_fd_sc_hd__dfxtp_1 CLK D VGND VNB VPB VPWR Q
.ends

* Black-box entry subcircuit for sky130_fd_sc_hd__and2_1 abstract view
.subckt sky130_fd_sc_hd__and2_1 A B VGND VNB VPB VPWR X
.ends

* Black-box entry subcircuit for sky130_fd_sc_hd__tapvpwrvgnd_1 abstract view
.subckt sky130_fd_sc_hd__tapvpwrvgnd_1 VGND VPWR
.ends

* Black-box entry subcircuit for sky130_fd_sc_hd__fill_2 abstract view
.subckt sky130_fd_sc_hd__fill_2 VGND VNB VPB VPWR
.ends

* Black-box entry subcircuit for sky130_fd_sc_hd__decap_3 abstract view
.subckt sky130_fd_sc_hd__decap_3 VGND VNB VPB VPWR
.ends

* Black-box entry subcircuit for sky130_fd_sc_hd__decap_8 abstract view
.subckt sky130_fd_sc_hd__decap_8 VGND VNB VPB VPWR
.ends

* Black-box entry subcircuit for sky130_fd_sc_hd__decap_4 abstract view
.subckt sky130_fd_sc_hd__decap_4 VGND VNB VPB VPWR
.ends

* Black-box entry subcircuit for sky130_fd_sc_hd__or4_1 abstract view
.subckt sky130_fd_sc_hd__or4_1 A B C D VGND VNB VPB VPWR X
.ends

* Black-box entry subcircuit for sky130_fd_sc_hd__inv_2 abstract view
.subckt sky130_fd_sc_hd__inv_2 A VGND VNB VPB VPWR Y
.ends

* Black-box entry subcircuit for sky130_ef_sc_hd__decap_12 abstract view
.subckt sky130_ef_sc_hd__decap_12 VPWR VGND VPB VNB
.ends

* Black-box entry subcircuit for sky130_fd_sc_hd__dfxtp_2 abstract view
.subckt sky130_fd_sc_hd__dfxtp_2 CLK D VGND VNB VPB VPWR Q
.ends

* Black-box entry subcircuit for sky130_fd_sc_hd__a21oi_1 abstract view
.subckt sky130_fd_sc_hd__a21oi_1 A1 A2 B1 VGND VNB VPB VPWR Y
.ends

* Black-box entry subcircuit for sky130_fd_sc_hd__mux2_1 abstract view
.subckt sky130_fd_sc_hd__mux2_1 A0 A1 S VGND VNB VPB VPWR X
.ends

* Black-box entry subcircuit for sky130_fd_sc_hd__clkbuf_2 abstract view
.subckt sky130_fd_sc_hd__clkbuf_2 A VGND VNB VPB VPWR X
.ends

* Black-box entry subcircuit for sky130_fd_sc_hd__o2bb2a_1 abstract view
.subckt sky130_fd_sc_hd__o2bb2a_1 A1_N A2_N B1 B2 VGND VNB VPB VPWR X
.ends

* Black-box entry subcircuit for sky130_fd_sc_hd__o22a_1 abstract view
.subckt sky130_fd_sc_hd__o22a_1 A1 A2 B1 B2 VGND VNB VPB VPWR X
.ends

* Black-box entry subcircuit for sky130_fd_sc_hd__a2111oi_4 abstract view
.subckt sky130_fd_sc_hd__a2111oi_4 A1 A2 B1 C1 D1 VGND VNB VPB VPWR Y
.ends

* Black-box entry subcircuit for sky130_fd_sc_hd__fill_1 abstract view
.subckt sky130_fd_sc_hd__fill_1 VGND VNB VPB VPWR
.ends

* Black-box entry subcircuit for sky130_fd_sc_hd__or3_1 abstract view
.subckt sky130_fd_sc_hd__or3_1 A B C VGND VNB VPB VPWR X
.ends

* Black-box entry subcircuit for sky130_fd_sc_hd__o22ai_1 abstract view
.subckt sky130_fd_sc_hd__o22ai_1 A1 A2 B1 B2 VGND VNB VPB VPWR Y
.ends

* Black-box entry subcircuit for sky130_fd_sc_hd__nor2_1 abstract view
.subckt sky130_fd_sc_hd__nor2_1 A B VGND VNB VPB VPWR Y
.ends

* Black-box entry subcircuit for sky130_fd_sc_hd__buf_2 abstract view
.subckt sky130_fd_sc_hd__buf_2 A VGND VNB VPB VPWR X
.ends

* Black-box entry subcircuit for sky130_fd_sc_hd__a22o_1 abstract view
.subckt sky130_fd_sc_hd__a22o_1 A1 A2 B1 B2 VGND VNB VPB VPWR X
.ends

* Black-box entry subcircuit for sky130_fd_sc_hd__decap_6 abstract view
.subckt sky130_fd_sc_hd__decap_6 VGND VNB VPB VPWR
.ends

* Black-box entry subcircuit for sky130_fd_sc_hd__o211a_1 abstract view
.subckt sky130_fd_sc_hd__o211a_1 A1 A2 B1 C1 VGND VNB VPB VPWR X
.ends

* Black-box entry subcircuit for sky130_fd_sc_hd__nand2_1 abstract view
.subckt sky130_fd_sc_hd__nand2_1 A B VGND VNB VPB VPWR Y
.ends

* Black-box entry subcircuit for sky130_fd_sc_hd__o31ai_4 abstract view
.subckt sky130_fd_sc_hd__o31ai_4 A1 A2 A3 B1 VGND VNB VPB VPWR Y
.ends

* Black-box entry subcircuit for sky130_fd_sc_hd__a31o_1 abstract view
.subckt sky130_fd_sc_hd__a31o_1 A1 A2 A3 B1 VGND VNB VPB VPWR X
.ends

* Black-box entry subcircuit for sky130_fd_sc_hd__o21a_1 abstract view
.subckt sky130_fd_sc_hd__o21a_1 A1 A2 B1 VGND VNB VPB VPWR X
.ends

* Black-box entry subcircuit for sky130_fd_sc_hd__dlymetal6s2s_1 abstract view
.subckt sky130_fd_sc_hd__dlymetal6s2s_1 A VGND VNB VPB VPWR X
.ends

* Black-box entry subcircuit for sky130_fd_sc_hd__xnor2_1 abstract view
.subckt sky130_fd_sc_hd__xnor2_1 A B VGND VNB VPB VPWR Y
.ends

* Black-box entry subcircuit for sky130_fd_sc_hd__or2_1 abstract view
.subckt sky130_fd_sc_hd__or2_1 A B VGND VNB VPB VPWR X
.ends

* Black-box entry subcircuit for sky130_fd_sc_hd__a41o_1 abstract view
.subckt sky130_fd_sc_hd__a41o_1 A1 A2 A3 A4 B1 VGND VNB VPB VPWR X
.ends

* Black-box entry subcircuit for sky130_fd_sc_hd__or3b_1 abstract view
.subckt sky130_fd_sc_hd__or3b_1 A B C_N VGND VNB VPB VPWR X
.ends

* Black-box entry subcircuit for sky130_fd_sc_hd__or2_2 abstract view
.subckt sky130_fd_sc_hd__or2_2 A B VGND VNB VPB VPWR X
.ends

* Black-box entry subcircuit for sky130_fd_sc_hd__nor3_1 abstract view
.subckt sky130_fd_sc_hd__nor3_1 A B C VGND VNB VPB VPWR Y
.ends

* Black-box entry subcircuit for sky130_fd_sc_hd__clkbuf_4 abstract view
.subckt sky130_fd_sc_hd__clkbuf_4 A VGND VNB VPB VPWR X
.ends

* Black-box entry subcircuit for sky130_fd_sc_hd__mux4_1 abstract view
.subckt sky130_fd_sc_hd__mux4_1 A0 A1 A2 A3 S0 S1 VGND VNB VPB VPWR X
.ends

* Black-box entry subcircuit for sky130_fd_sc_hd__and3b_4 abstract view
.subckt sky130_fd_sc_hd__and3b_4 A_N B C VGND VNB VPB VPWR X
.ends

* Black-box entry subcircuit for sky130_fd_sc_hd__a2111o_1 abstract view
.subckt sky130_fd_sc_hd__a2111o_1 A1 A2 B1 C1 D1 VGND VNB VPB VPWR X
.ends

* Black-box entry subcircuit for sky130_fd_sc_hd__nor2_2 abstract view
.subckt sky130_fd_sc_hd__nor2_2 A B VGND VNB VPB VPWR Y
.ends

* Black-box entry subcircuit for sky130_fd_sc_hd__o21ai_2 abstract view
.subckt sky130_fd_sc_hd__o21ai_2 A1 A2 B1 VGND VNB VPB VPWR Y
.ends

* Black-box entry subcircuit for sky130_fd_sc_hd__o311a_1 abstract view
.subckt sky130_fd_sc_hd__o311a_1 A1 A2 A3 B1 C1 VGND VNB VPB VPWR X
.ends

* Black-box entry subcircuit for sky130_fd_sc_hd__or4b_1 abstract view
.subckt sky130_fd_sc_hd__or4b_1 A B C D_N VGND VNB VPB VPWR X
.ends

* Black-box entry subcircuit for sky130_fd_sc_hd__a21boi_1 abstract view
.subckt sky130_fd_sc_hd__a21boi_1 A1 A2 B1_N VGND VNB VPB VPWR Y
.ends

* Black-box entry subcircuit for sky130_fd_sc_hd__o21ai_1 abstract view
.subckt sky130_fd_sc_hd__o21ai_1 A1 A2 B1 VGND VNB VPB VPWR Y
.ends

* Black-box entry subcircuit for sky130_fd_sc_hd__or4b_2 abstract view
.subckt sky130_fd_sc_hd__or4b_2 A B C D_N VGND VNB VPB VPWR X
.ends

* Black-box entry subcircuit for sky130_fd_sc_hd__o31ai_1 abstract view
.subckt sky130_fd_sc_hd__o31ai_1 A1 A2 A3 B1 VGND VNB VPB VPWR Y
.ends

* Black-box entry subcircuit for sky130_fd_sc_hd__and3_1 abstract view
.subckt sky130_fd_sc_hd__and3_1 A B C VGND VNB VPB VPWR X
.ends

* Black-box entry subcircuit for sky130_fd_sc_hd__nand3_1 abstract view
.subckt sky130_fd_sc_hd__nand3_1 A B C VGND VNB VPB VPWR Y
.ends

* Black-box entry subcircuit for sky130_fd_sc_hd__and4_1 abstract view
.subckt sky130_fd_sc_hd__and4_1 A B C D VGND VNB VPB VPWR X
.ends

* Black-box entry subcircuit for sky130_fd_sc_hd__a21o_1 abstract view
.subckt sky130_fd_sc_hd__a21o_1 A1 A2 B1 VGND VNB VPB VPWR X
.ends

* Black-box entry subcircuit for sky130_fd_sc_hd__and3b_2 abstract view
.subckt sky130_fd_sc_hd__and3b_2 A_N B C VGND VNB VPB VPWR X
.ends

* Black-box entry subcircuit for sky130_fd_sc_hd__a32o_1 abstract view
.subckt sky130_fd_sc_hd__a32o_1 A1 A2 A3 B1 B2 VGND VNB VPB VPWR X
.ends

* Black-box entry subcircuit for sky130_fd_sc_hd__nand2b_1 abstract view
.subckt sky130_fd_sc_hd__nand2b_1 A_N B VGND VNB VPB VPWR Y
.ends

* Black-box entry subcircuit for sky130_fd_sc_hd__o31a_1 abstract view
.subckt sky130_fd_sc_hd__o31a_1 A1 A2 A3 B1 VGND VNB VPB VPWR X
.ends

* Black-box entry subcircuit for sky130_fd_sc_hd__xor2_1 abstract view
.subckt sky130_fd_sc_hd__xor2_1 A B VGND VNB VPB VPWR X
.ends

* Black-box entry subcircuit for sky130_fd_sc_hd__or4bb_2 abstract view
.subckt sky130_fd_sc_hd__or4bb_2 A B C_N D_N VGND VNB VPB VPWR X
.ends

* Black-box entry subcircuit for sky130_fd_sc_hd__and4_4 abstract view
.subckt sky130_fd_sc_hd__and4_4 A B C D VGND VNB VPB VPWR X
.ends

* Black-box entry subcircuit for sky130_fd_sc_hd__a221o_2 abstract view
.subckt sky130_fd_sc_hd__a221o_2 A1 A2 B1 B2 C1 VGND VNB VPB VPWR X
.ends

* Black-box entry subcircuit for sky130_fd_sc_hd__a311o_1 abstract view
.subckt sky130_fd_sc_hd__a311o_1 A1 A2 A3 B1 C1 VGND VNB VPB VPWR X
.ends

* Black-box entry subcircuit for sky130_fd_sc_hd__dfxtp_4 abstract view
.subckt sky130_fd_sc_hd__dfxtp_4 CLK D VGND VNB VPB VPWR Q
.ends

* Black-box entry subcircuit for sky130_fd_sc_hd__o31a_2 abstract view
.subckt sky130_fd_sc_hd__o31a_2 A1 A2 A3 B1 VGND VNB VPB VPWR X
.ends

* Black-box entry subcircuit for sky130_fd_sc_hd__o221a_1 abstract view
.subckt sky130_fd_sc_hd__o221a_1 A1 A2 B1 B2 C1 VGND VNB VPB VPWR X
.ends

* Black-box entry subcircuit for sky130_fd_sc_hd__o21a_2 abstract view
.subckt sky130_fd_sc_hd__o21a_2 A1 A2 B1 VGND VNB VPB VPWR X
.ends

* Black-box entry subcircuit for sky130_fd_sc_hd__and4_2 abstract view
.subckt sky130_fd_sc_hd__and4_2 A B C D VGND VNB VPB VPWR X
.ends

* Black-box entry subcircuit for sky130_fd_sc_hd__and3_4 abstract view
.subckt sky130_fd_sc_hd__and3_4 A B C VGND VNB VPB VPWR X
.ends

* Black-box entry subcircuit for sky130_fd_sc_hd__nor4_1 abstract view
.subckt sky130_fd_sc_hd__nor4_1 A B C D VGND VNB VPB VPWR Y
.ends

* Black-box entry subcircuit for sky130_fd_sc_hd__a2111oi_1 abstract view
.subckt sky130_fd_sc_hd__a2111oi_1 A1 A2 B1 C1 D1 VGND VNB VPB VPWR Y
.ends

* Black-box entry subcircuit for sky130_fd_sc_hd__and2_2 abstract view
.subckt sky130_fd_sc_hd__and2_2 A B VGND VNB VPB VPWR X
.ends

* Black-box entry subcircuit for sky130_fd_sc_hd__buf_1 abstract view
.subckt sky130_fd_sc_hd__buf_1 A VGND VNB VPB VPWR X
.ends

* Black-box entry subcircuit for sky130_fd_sc_hd__a211o_1 abstract view
.subckt sky130_fd_sc_hd__a211o_1 A1 A2 B1 C1 VGND VNB VPB VPWR X
.ends

* Black-box entry subcircuit for sky130_fd_sc_hd__o21bai_1 abstract view
.subckt sky130_fd_sc_hd__o21bai_1 A1 A2 B1_N VGND VNB VPB VPWR Y
.ends

* Black-box entry subcircuit for sky130_fd_sc_hd__a211oi_1 abstract view
.subckt sky130_fd_sc_hd__a211oi_1 A1 A2 B1 C1 VGND VNB VPB VPWR Y
.ends

* Black-box entry subcircuit for sky130_fd_sc_hd__mux4_2 abstract view
.subckt sky130_fd_sc_hd__mux4_2 A0 A1 A2 A3 S0 S1 VGND VNB VPB VPWR X
.ends

* Black-box entry subcircuit for sky130_fd_sc_hd__or4b_4 abstract view
.subckt sky130_fd_sc_hd__or4b_4 A B C D_N VGND VNB VPB VPWR X
.ends

* Black-box entry subcircuit for sky130_fd_sc_hd__or3_2 abstract view
.subckt sky130_fd_sc_hd__or3_2 A B C VGND VNB VPB VPWR X
.ends

* Black-box entry subcircuit for sky130_fd_sc_hd__nor3b_1 abstract view
.subckt sky130_fd_sc_hd__nor3b_1 A B C_N VGND VNB VPB VPWR Y
.ends

* Black-box entry subcircuit for sky130_fd_sc_hd__nand3b_1 abstract view
.subckt sky130_fd_sc_hd__nand3b_1 A_N B C VGND VNB VPB VPWR Y
.ends

* Black-box entry subcircuit for sky130_fd_sc_hd__clkbuf_1 abstract view
.subckt sky130_fd_sc_hd__clkbuf_1 A VGND VNB VPB VPWR X
.ends

* Black-box entry subcircuit for sky130_fd_sc_hd__o31ai_2 abstract view
.subckt sky130_fd_sc_hd__o31ai_2 A1 A2 A3 B1 VGND VNB VPB VPWR Y
.ends

* Black-box entry subcircuit for sky130_fd_sc_hd__nor3_4 abstract view
.subckt sky130_fd_sc_hd__nor3_4 A B C VGND VNB VPB VPWR Y
.ends

* Black-box entry subcircuit for sky130_fd_sc_hd__and4bb_1 abstract view
.subckt sky130_fd_sc_hd__and4bb_1 A_N B_N C D VGND VNB VPB VPWR X
.ends

* Black-box entry subcircuit for sky130_fd_sc_hd__a21bo_1 abstract view
.subckt sky130_fd_sc_hd__a21bo_1 A1 A2 B1_N VGND VNB VPB VPWR X
.ends

* Black-box entry subcircuit for sky130_fd_sc_hd__and3_2 abstract view
.subckt sky130_fd_sc_hd__and3_2 A B C VGND VNB VPB VPWR X
.ends

* Black-box entry subcircuit for sky130_fd_sc_hd__nand2b_2 abstract view
.subckt sky130_fd_sc_hd__nand2b_2 A_N B VGND VNB VPB VPWR Y
.ends

* Black-box entry subcircuit for sky130_fd_sc_hd__o32a_1 abstract view
.subckt sky130_fd_sc_hd__o32a_1 A1 A2 A3 B1 B2 VGND VNB VPB VPWR X
.ends

* Black-box entry subcircuit for sky130_fd_sc_hd__o41a_1 abstract view
.subckt sky130_fd_sc_hd__o41a_1 A1 A2 A3 A4 B1 VGND VNB VPB VPWR X
.ends

* Black-box entry subcircuit for sky130_fd_sc_hd__a21oi_2 abstract view
.subckt sky130_fd_sc_hd__a21oi_2 A1 A2 B1 VGND VNB VPB VPWR Y
.ends

* Black-box entry subcircuit for sky130_fd_sc_hd__or4_4 abstract view
.subckt sky130_fd_sc_hd__or4_4 A B C D VGND VNB VPB VPWR X
.ends

* Black-box entry subcircuit for sky130_fd_sc_hd__a2bb2o_1 abstract view
.subckt sky130_fd_sc_hd__a2bb2o_1 A1_N A2_N B1 B2 VGND VNB VPB VPWR X
.ends

* Black-box entry subcircuit for sky130_fd_sc_hd__and2b_2 abstract view
.subckt sky130_fd_sc_hd__and2b_2 A_N B VGND VNB VPB VPWR X
.ends

* Black-box entry subcircuit for sky130_fd_sc_hd__o2111a_1 abstract view
.subckt sky130_fd_sc_hd__o2111a_1 A1 A2 B1 C1 D1 VGND VNB VPB VPWR X
.ends

* Black-box entry subcircuit for sky130_fd_sc_hd__nor4b_1 abstract view
.subckt sky130_fd_sc_hd__nor4b_1 A B C D_N VGND VNB VPB VPWR Y
.ends

* Black-box entry subcircuit for sky130_fd_sc_hd__a21oi_4 abstract view
.subckt sky130_fd_sc_hd__a21oi_4 A1 A2 B1 VGND VNB VPB VPWR Y
.ends

* Black-box entry subcircuit for sky130_fd_sc_hd__nor4_2 abstract view
.subckt sky130_fd_sc_hd__nor4_2 A B C D VGND VNB VPB VPWR Y
.ends

* Black-box entry subcircuit for sky130_fd_sc_hd__a221o_1 abstract view
.subckt sky130_fd_sc_hd__a221o_1 A1 A2 B1 B2 C1 VGND VNB VPB VPWR X
.ends

* Black-box entry subcircuit for sky130_fd_sc_hd__and3b_1 abstract view
.subckt sky130_fd_sc_hd__and3b_1 A_N B C VGND VNB VPB VPWR X
.ends

* Black-box entry subcircuit for sky130_fd_sc_hd__nor3_2 abstract view
.subckt sky130_fd_sc_hd__nor3_2 A B C VGND VNB VPB VPWR Y
.ends

* Black-box entry subcircuit for sky130_fd_sc_hd__a31oi_1 abstract view
.subckt sky130_fd_sc_hd__a31oi_1 A1 A2 A3 B1 VGND VNB VPB VPWR Y
.ends

* Black-box entry subcircuit for sky130_fd_sc_hd__and2b_1 abstract view
.subckt sky130_fd_sc_hd__and2b_1 A_N B VGND VNB VPB VPWR X
.ends

* Black-box entry subcircuit for sky130_fd_sc_hd__nor2_4 abstract view
.subckt sky130_fd_sc_hd__nor2_4 A B VGND VNB VPB VPWR Y
.ends

* Black-box entry subcircuit for sky130_fd_sc_hd__nand4b_4 abstract view
.subckt sky130_fd_sc_hd__nand4b_4 A_N B C D VGND VNB VPB VPWR Y
.ends

* Black-box entry subcircuit for sky130_fd_sc_hd__nand4_1 abstract view
.subckt sky130_fd_sc_hd__nand4_1 A B C D VGND VNB VPB VPWR Y
.ends

* Black-box entry subcircuit for sky130_fd_sc_hd__nand3_4 abstract view
.subckt sky130_fd_sc_hd__nand3_4 A B C VGND VNB VPB VPWR Y
.ends

.subckt top i_clk i_reset i_uartRx o_uartTx vccd1 vssd1
XuartUnit.uartTxUnit._164_ net51 uartUnit.uartTxUnit._009_ vssd1 vssd1 vccd1 vccd1
+ uartUnit.uartTxUnit.n\[1\] sky130_fd_sc_hd__dfxtp_1
XuartUnit.uartTxUnit._095_ net16 uartUnit.uartTxUnit._053_ vssd1 vssd1 vccd1 vccd1
+ uartUnit.uartTxUnit._002_ sky130_fd_sc_hd__and2_1
XTAP_TAPCELL_ROW_17_191 vssd1 vccd1 sky130_fd_sc_hd__tapvpwrvgnd_1
XTAP_TAPCELL_ROW_9_148 vssd1 vccd1 sky130_fd_sc_hd__tapvpwrvgnd_1
XFILLER_45_225 vssd1 vssd1 vccd1 vccd1 sky130_fd_sc_hd__fill_2
XPHY_EDGE_ROW_37_Left_86 vssd1 vssd1 vccd1 vccd1 sky130_fd_sc_hd__decap_3
Xalu_uart_interfaceUnit._157_ net33 alu_uart_interfaceUnit._074_ vssd1 vssd1 vccd1
+ vccd1 alu_uart_interfaceUnit._022_ sky130_fd_sc_hd__and2_1
XFILLER_36_225 vssd1 vssd1 vccd1 vccd1 sky130_fd_sc_hd__decap_8
XFILLER_3_78 vssd1 vssd1 vccd1 vccd1 sky130_fd_sc_hd__decap_4
XuartUnit.fifoTX._170_ net59 uartUnit.fifoTX._036_ vssd1 vssd1 vccd1 vccd1 uartUnit.fifoTX.array\[3\]\[2\]
+ sky130_fd_sc_hd__dfxtp_1
XuartUnit.uartTxUnit._147_ net8 net6 uartUnit.uartTxUnit._022_ uartUnit.uartTxUnit._034_
+ vssd1 vssd1 vccd1 vccd1 uartUnit.uartTxUnit._035_ sky130_fd_sc_hd__or4_1
XuartUnit.uartTxUnit._078_ net14 vssd1 vssd1 vccd1 vccd1 uartUnit.uartTxUnit._040_
+ sky130_fd_sc_hd__inv_2
XFILLER_12_65 vccd1 vssd1 vccd1 vssd1 sky130_ef_sc_hd__decap_12
XFILLER_18_247 vssd1 vssd1 vccd1 vccd1 sky130_fd_sc_hd__decap_4
XFILLER_41_261 vccd1 vssd1 vccd1 vssd1 sky130_ef_sc_hd__decap_12
Xalu_uart_interfaceUnit._209_ net55 alu_uart_interfaceUnit._021_ vssd1 vssd1 vccd1
+ vccd1 aluUnit.i_data_a\[7\] sky130_fd_sc_hd__dfxtp_2
XaluUnit._282_ aluUnit._103_ aluUnit._112_ aluUnit._029_ vssd1 vssd1 vccd1 vccd1 aluUnit._048_
+ sky130_fd_sc_hd__a21oi_1
XFILLER_5_151 vssd1 vssd1 vccd1 vccd1 sky130_fd_sc_hd__decap_8
XuartUnit.fifoTX._084_ uartUnit.fifoTX.array\[2\]\[6\] alu_uart_interfaceUnit.o_data_to_write\[6\]
+ uartUnit.fifoTX._046_ vssd1 vssd1 vccd1 vccd1 uartUnit.fifoTX._008_ sky130_fd_sc_hd__mux2_1
XFILLER_15_206 vccd1 vssd1 vccd1 vssd1 sky130_ef_sc_hd__decap_12
XuartUnit.fifoTX._153_ net58 uartUnit.fifoTX._019_ vssd1 vssd1 vccd1 vccd1 uartUnit.fifoTX.array\[1\]\[1\]
+ sky130_fd_sc_hd__dfxtp_1
XFILLER_30_209 vssd1 vssd1 vccd1 vccd1 sky130_fd_sc_hd__decap_8
XTAP_TAPCELL_ROW_48_348 vssd1 vccd1 sky130_fd_sc_hd__tapvpwrvgnd_1
Xmax_cap5 uartUnit.uartTxUnit._023_ vssd1 vssd1 vccd1 vccd1 net5 sky130_fd_sc_hd__clkbuf_2
XFILLER_0_57 vccd1 vssd1 vccd1 vssd1 sky130_ef_sc_hd__decap_12
XaluUnit._196_ aluUnit.i_data_a\[0\] net29 aluUnit._126_ aluUnit._128_ vssd1 vssd1
+ vccd1 vccd1 aluUnit._129_ sky130_fd_sc_hd__o2bb2a_1
XaluUnit._265_ net21 net31 aluUnit._124_ aluUnit._031_ vssd1 vssd1 vccd1 vccd1 aluUnit._032_
+ sky130_fd_sc_hd__o22a_1
XFILLER_14_261 vssd1 vssd1 vccd1 vccd1 sky130_fd_sc_hd__decap_8
XFILLER_14_283 vssd1 vssd1 vccd1 vccd1 sky130_fd_sc_hd__decap_8
XTAP_TAPCELL_ROW_31_259 vssd1 vccd1 sky130_fd_sc_hd__tapvpwrvgnd_1
XPHY_EDGE_ROW_24_Left_73 vssd1 vssd1 vccd1 vccd1 sky130_fd_sc_hd__decap_3
XuartUnit.uartRxUnit._110_ uartUnit.uartRxUnit.state\[2\] uartUnit.uartRxUnit._039_
+ uartUnit.uartRxUnit._040_ uartUnit.uartRxUnit.state\[0\] uartUnit.uartRxUnit.state\[3\]
+ vssd1 vssd1 vccd1 vccd1 uartUnit.uartRxUnit._058_ sky130_fd_sc_hd__a2111oi_4
XTAP_TAPCELL_ROW_22_215 vssd1 vccd1 sky130_fd_sc_hd__tapvpwrvgnd_1
XFILLER_20_253 vssd1 vssd1 vccd1 vccd1 sky130_fd_sc_hd__decap_8
XFILLER_20_286 vssd1 vssd1 vccd1 vccd1 sky130_fd_sc_hd__decap_4
XTAP_TAPCELL_ROW_45_329 vssd1 vccd1 sky130_fd_sc_hd__tapvpwrvgnd_1
XFILLER_18_53 vccd1 vssd1 vccd1 vssd1 sky130_ef_sc_hd__decap_12
XFILLER_7_213 vssd1 vssd1 vccd1 vccd1 sky130_fd_sc_hd__decap_8
XFILLER_11_220 vssd1 vssd1 vccd1 vccd1 sky130_fd_sc_hd__fill_1
XFILLER_11_253 vssd1 vssd1 vccd1 vccd1 sky130_fd_sc_hd__fill_1
XuartUnit.fifoTX._136_ net57 uartUnit.fifoTX._002_ vssd1 vssd1 vccd1 vccd1 uartUnit.fifoTX.array\[2\]\[0\]
+ sky130_fd_sc_hd__dfxtp_1
XuartUnit.fifoTX._067_ alu_uart_interfaceUnit.o_fifo_tx_write vssd1 vssd1 vccd1 vccd1
+ uartUnit.fifoTX._044_ sky130_fd_sc_hd__inv_2
XFILLER_7_268 vccd1 vssd1 vccd1 vssd1 sky130_ef_sc_hd__decap_12
XFILLER_38_128 vccd1 vssd1 vccd1 vssd1 sky130_ef_sc_hd__decap_12
XaluUnit._317_ net25 aluUnit._117_ aluUnit._134_ vssd1 vssd1 vccd1 vccd1 aluUnit._081_
+ sky130_fd_sc_hd__or3_1
XaluUnit._248_ net23 net32 aluUnit._124_ aluUnit._015_ vssd1 vssd1 vccd1 vccd1 aluUnit._016_
+ sky130_fd_sc_hd__o22ai_1
XaluUnit._179_ net23 aluUnit._105_ vssd1 vssd1 vccd1 vccd1 aluUnit._112_ sky130_fd_sc_hd__nor2_1
Xfanout7 uartUnit.uartTxUnit._047_ vssd1 vssd1 vccd1 vccd1 net7 sky130_fd_sc_hd__buf_2
Xalu_uart_interfaceUnit._190_ net47 alu_uart_interfaceUnit._002_ vssd1 vssd1 vccd1
+ vccd1 alu_uart_interfaceUnit.state\[0\] sky130_fd_sc_hd__dfxtp_1
XFILLER_4_238 vssd1 vssd1 vccd1 vccd1 sky130_fd_sc_hd__fill_1
XFILLER_43_186 vssd1 vssd1 vccd1 vccd1 sky130_fd_sc_hd__fill_2
XFILLER_35_109 vssd1 vssd1 vccd1 vccd1 sky130_fd_sc_hd__decap_3
XTAP_TAPCELL_ROW_41_310 vssd1 vccd1 sky130_fd_sc_hd__tapvpwrvgnd_1
XuartUnit.fifoTX._119_ uartUnit.fifoTX._044_ uartUnit.fifoTX.i_read_fifo uartUnit.fifoTX._058_
+ uartUnit.fifoTX._059_ vssd1 vssd1 vccd1 vccd1 uartUnit.fifoTX._060_ sky130_fd_sc_hd__or4_1
XFILLER_13_3 vssd1 vssd1 vccd1 vccd1 sky130_fd_sc_hd__decap_8
XFILLER_34_197 vssd1 vssd1 vccd1 vccd1 sky130_fd_sc_hd__fill_2
XFILLER_34_153 vccd1 vssd1 vccd1 vssd1 sky130_ef_sc_hd__decap_12
XPHY_EDGE_ROW_11_Left_60 vssd1 vssd1 vccd1 vccd1 sky130_fd_sc_hd__decap_3
XFILLER_40_156 vccd1 vssd1 vccd1 vssd1 sky130_ef_sc_hd__decap_12
XFILLER_15_43 vssd1 vssd1 vccd1 vccd1 sky130_fd_sc_hd__decap_3
Xalu_uart_interfaceUnit._173_ net37 alu_uart_interfaceUnit._082_ vssd1 vssd1 vccd1
+ vccd1 alu_uart_interfaceUnit._030_ sky130_fd_sc_hd__and2_1
XFILLER_48_289 vssd1 vssd1 vccd1 vccd1 sky130_fd_sc_hd__fill_2
XFILLER_16_131 vssd1 vssd1 vccd1 vccd1 sky130_fd_sc_hd__decap_4
XFILLER_16_197 vssd1 vssd1 vccd1 vccd1 sky130_fd_sc_hd__decap_3
XuartUnit.fifoRX._097_ uartUnit.fifoRX.array\[1\]\[1\] uartUnit.fifoRX.i_data_to_write\[1\]
+ uartUnit.fifoRX._048_ vssd1 vssd1 vccd1 vccd1 uartUnit.fifoRX._019_ sky130_fd_sc_hd__mux2_1
XuartUnit.fifoRX._166_ net50 uartUnit.fifoRX._032_ vssd1 vssd1 vccd1 vccd1 uartUnit.fifoRX.o_fifo_is_full
+ sky130_fd_sc_hd__dfxtp_1
XuartUnit.uartTxUnit._163_ net51 uartUnit.uartTxUnit._008_ vssd1 vssd1 vccd1 vccd1
+ uartUnit.uartTxUnit.n\[0\] sky130_fd_sc_hd__dfxtp_1
XFILLER_39_245 vccd1 vssd1 vccd1 vssd1 sky130_ef_sc_hd__decap_12
XuartUnit.uartTxUnit._094_ uartUnit.tx_not_empty uartUnit.uartTxUnit.state\[0\] uartUnit.uartTxUnit._046_
+ uartUnit.uartTxUnit.state\[2\] vssd1 vssd1 vccd1 vccd1 uartUnit.uartTxUnit._053_
+ sky130_fd_sc_hd__a22o_1
XTAP_TAPCELL_ROW_17_192 vssd1 vccd1 sky130_fd_sc_hd__tapvpwrvgnd_1
XTAP_TAPCELL_ROW_9_149 vssd1 vccd1 sky130_fd_sc_hd__tapvpwrvgnd_1
Xalu_uart_interfaceUnit._156_ aluUnit.i_data_b\[0\] alu_uart_interfaceUnit.i_data_to_read\[0\]
+ alu_uart_interfaceUnit._053_ vssd1 vssd1 vccd1 vccd1 alu_uart_interfaceUnit._074_
+ sky130_fd_sc_hd__mux2_1
XFILLER_13_145 vssd1 vssd1 vccd1 vccd1 sky130_fd_sc_hd__fill_1
XFILLER_26_42 vssd1 vssd1 vccd1 vccd1 sky130_fd_sc_hd__fill_2
Xalu_uart_interfaceUnit._225_ net57 alu_uart_interfaceUnit._037_ vssd1 vssd1 vccd1
+ vccd1 alu_uart_interfaceUnit.o_data_to_write\[7\] sky130_fd_sc_hd__dfxtp_1
XFILLER_42_41 vssd1 vssd1 vccd1 vccd1 sky130_fd_sc_hd__decap_8
XFILLER_3_35 vssd1 vssd1 vccd1 vccd1 sky130_fd_sc_hd__decap_3
XTAP_TAPCELL_ROW_14_173 vssd1 vccd1 sky130_fd_sc_hd__tapvpwrvgnd_1
XuartUnit.fifoRX._149_ net47 uartUnit.fifoRX._015_ vssd1 vssd1 vccd1 vccd1 uartUnit.fifoRX.array\[0\]\[5\]
+ sky130_fd_sc_hd__dfxtp_1
XuartUnit.uartTxUnit._146_ uartUnit.fifoTX.o_data_to_read\[5\] uartUnit.uartTxUnit.send_byte\[6\]
+ net15 vssd1 vssd1 vccd1 vccd1 uartUnit.uartTxUnit._034_ sky130_fd_sc_hd__mux2_1
XFILLER_35_281 vssd1 vssd1 vccd1 vccd1 sky130_fd_sc_hd__decap_8
XuartUnit.uartTxUnit._077_ uartUnit.uartTxUnit.s\[0\] vssd1 vssd1 vccd1 vccd1 uartUnit.uartTxUnit._039_
+ sky130_fd_sc_hd__inv_2
XFILLER_10_104 vccd1 vssd1 vccd1 vssd1 sky130_ef_sc_hd__decap_12
XFILLER_12_77 vssd1 vssd1 vccd1 vccd1 sky130_fd_sc_hd__decap_6
XTAP_TAPCELL_ROW_5_130 vssd1 vccd1 sky130_fd_sc_hd__tapvpwrvgnd_1
XFILLER_37_41 vccd1 vssd1 vccd1 vssd1 sky130_ef_sc_hd__decap_12
XTAP_TAPCELL_ROW_28_243 vssd1 vccd1 sky130_fd_sc_hd__tapvpwrvgnd_1
XFILLER_41_273 vssd1 vssd1 vccd1 vccd1 sky130_fd_sc_hd__decap_6
Xalu_uart_interfaceUnit._139_ aluUnit.i_op\[5\] alu_uart_interfaceUnit._051_ alu_uart_interfaceUnit._065_
+ net33 vssd1 vssd1 vccd1 vccd1 alu_uart_interfaceUnit._013_ sky130_fd_sc_hd__o211a_1
XaluUnit._281_ aluUnit._042_ aluUnit._045_ vssd1 vssd1 vccd1 vccd1 aluUnit._047_ sky130_fd_sc_hd__nand2_1
Xalu_uart_interfaceUnit._208_ net54 alu_uart_interfaceUnit._020_ vssd1 vssd1 vccd1
+ vccd1 aluUnit.i_data_a\[6\] sky130_fd_sc_hd__dfxtp_2
XFILLER_5_185 vccd1 vssd1 vccd1 vssd1 sky130_ef_sc_hd__decap_12
XFILLER_5_141 vssd1 vssd1 vccd1 vccd1 sky130_fd_sc_hd__decap_4
XFILLER_17_281 vssd1 vssd1 vccd1 vccd1 sky130_fd_sc_hd__decap_8
XPHY_EDGE_ROW_12_Right_12 vssd1 vssd1 vccd1 vccd1 sky130_fd_sc_hd__decap_3
XPHY_EDGE_ROW_21_Right_21 vssd1 vssd1 vccd1 vccd1 sky130_fd_sc_hd__decap_3
XuartUnit.uartTxUnit._129_ uartUnit.uartTxUnit._040_ uartUnit.uartTxUnit._041_ uartUnit.uartTxUnit._044_
+ uartUnit.uartTxUnit._056_ vssd1 vssd1 vccd1 vccd1 uartUnit.uartTxUnit._022_ sky130_fd_sc_hd__o31ai_4
XuartUnit.fifoTX._083_ uartUnit.fifoTX.array\[2\]\[5\] alu_uart_interfaceUnit.o_data_to_write\[5\]
+ uartUnit.fifoTX._046_ vssd1 vssd1 vccd1 vccd1 uartUnit.fifoTX._007_ sky130_fd_sc_hd__mux2_1
XuartUnit.fifoTX._152_ net57 uartUnit.fifoTX._018_ vssd1 vssd1 vccd1 vccd1 uartUnit.fifoTX.array\[1\]\[0\]
+ sky130_fd_sc_hd__dfxtp_1
XFILLER_15_218 vssd1 vssd1 vccd1 vccd1 sky130_fd_sc_hd__decap_6
XFILLER_23_240 vssd1 vssd1 vccd1 vccd1 sky130_fd_sc_hd__decap_4
XPHY_EDGE_ROW_30_Right_30 vssd1 vssd1 vccd1 vccd1 sky130_fd_sc_hd__decap_3
XTAP_TAPCELL_ROW_48_349 vssd1 vccd1 sky130_fd_sc_hd__tapvpwrvgnd_1
XFILLER_0_69 vccd1 vssd1 vccd1 vssd1 sky130_ef_sc_hd__decap_12
XaluUnit._333_ aluUnit._126_ aluUnit._088_ aluUnit._089_ aluUnit._095_ vssd1 vssd1
+ vccd1 vccd1 aluUnit.o_alu_result\[7\] sky130_fd_sc_hd__a31o_1
XaluUnit._195_ aluUnit._127_ vssd1 vssd1 vccd1 vccd1 aluUnit._128_ sky130_fd_sc_hd__inv_2
XFILLER_9_23 vccd1 vssd1 vccd1 vssd1 sky130_ef_sc_hd__decap_12
XaluUnit._264_ net21 net31 aluUnit._127_ vssd1 vssd1 vccd1 vccd1 aluUnit._031_ sky130_fd_sc_hd__a21oi_1
XFILLER_14_251 vssd1 vssd1 vccd1 vccd1 sky130_fd_sc_hd__fill_1
XFILLER_43_3 vssd1 vssd1 vccd1 vccd1 sky130_fd_sc_hd__decap_8
XFILLER_20_232 vssd1 vssd1 vccd1 vccd1 sky130_fd_sc_hd__decap_3
XTAP_TAPCELL_ROW_22_216 vssd1 vccd1 sky130_fd_sc_hd__tapvpwrvgnd_1
XFILLER_47_107 vssd1 vssd1 vccd1 vccd1 sky130_fd_sc_hd__decap_4
XFILLER_18_65 vccd1 vssd1 vccd1 vssd1 sky130_ef_sc_hd__decap_12
XPHY_EDGE_ROW_41_Left_90 vssd1 vssd1 vccd1 vccd1 sky130_fd_sc_hd__decap_3
XuartUnit.fifoTX._135_ uartUnit.fifoTX.read_ptr\[1\] uartUnit.fifoTX._050_ uartUnit.fifoTX._052_
+ vssd1 vssd1 vccd1 vccd1 uartUnit.fifoTX._031_ sky130_fd_sc_hd__o21a_1
XuartUnit.fifoTX._066_ alu_uart_interfaceUnit.i_fifo_tx_full vssd1 vssd1 vccd1 vccd1
+ uartUnit.fifoTX._043_ sky130_fd_sc_hd__inv_2
XFILLER_7_225 vssd1 vssd1 vccd1 vccd1 sky130_fd_sc_hd__decap_3
XFILLER_11_243 vssd1 vssd1 vccd1 vccd1 sky130_fd_sc_hd__decap_3
XaluUnit._316_ aluUnit.i_data_b\[6\] aluUnit.i_data_a\[6\] aluUnit._133_ aluUnit._079_
+ vssd1 vssd1 vccd1 vccd1 aluUnit._080_ sky130_fd_sc_hd__a31o_1
Xfanout8 uartUnit.uartTxUnit._047_ vssd1 vssd1 vccd1 vccd1 net8 sky130_fd_sc_hd__dlymetal6s2s_1
XaluUnit._247_ net23 net32 aluUnit._127_ vssd1 vssd1 vccd1 vccd1 aluUnit._015_ sky130_fd_sc_hd__a21oi_1
XaluUnit._178_ aluUnit.i_data_b\[3\] net22 vssd1 vssd1 vccd1 vccd1 aluUnit._111_ sky130_fd_sc_hd__nor2_1
XFILLER_29_53 vssd1 vssd1 vccd1 vccd1 sky130_fd_sc_hd__decap_3
XFILLER_43_154 vssd1 vssd1 vccd1 vccd1 sky130_fd_sc_hd__fill_1
XFILLER_43_110 vssd1 vssd1 vccd1 vccd1 sky130_fd_sc_hd__fill_2
XTAP_TAPCELL_ROW_41_311 vssd1 vccd1 sky130_fd_sc_hd__tapvpwrvgnd_1
XuartUnit.fifoTX._118_ uartUnit.fifoTX.read_ptr\[0\] uartUnit.fifoTX.write_ptr\[0\]
+ vssd1 vssd1 vccd1 vccd1 uartUnit.fifoTX._059_ sky130_fd_sc_hd__xnor2_1
XFILLER_28_195 vssd1 vssd1 vccd1 vccd1 sky130_fd_sc_hd__fill_1
XFILLER_34_165 vccd1 vssd1 vccd1 vssd1 sky130_ef_sc_hd__decap_12
XPHY_EDGE_ROW_6_Right_6 vssd1 vssd1 vccd1 vccd1 sky130_fd_sc_hd__decap_3
XFILLER_1_209 vccd1 vssd1 vccd1 vssd1 sky130_ef_sc_hd__decap_12
XFILLER_15_22 vssd1 vssd1 vccd1 vccd1 sky130_fd_sc_hd__decap_4
Xalu_uart_interfaceUnit._172_ alu_uart_interfaceUnit.o_data_to_write\[0\] aluUnit.o_alu_result\[0\]
+ alu_uart_interfaceUnit._059_ vssd1 vssd1 vccd1 vccd1 alu_uart_interfaceUnit._082_
+ sky130_fd_sc_hd__mux2_1
XFILLER_40_168 vccd1 vssd1 vccd1 vssd1 sky130_ef_sc_hd__decap_12
XFILLER_0_253 vccd1 vssd1 vccd1 vssd1 sky130_ef_sc_hd__decap_12
XuartUnit.fifoRX._165_ net50 uartUnit.fifoRX._031_ vssd1 vssd1 vccd1 vccd1 uartUnit.fifoRX.read_ptr\[1\]
+ sky130_fd_sc_hd__dfxtp_1
XFILLER_31_102 vssd1 vssd1 vccd1 vccd1 sky130_fd_sc_hd__decap_6
XFILLER_31_179 vccd1 vssd1 vccd1 vssd1 sky130_ef_sc_hd__decap_12
XuartUnit.fifoRX._096_ uartUnit.fifoRX.array\[1\]\[0\] uartUnit.fifoRX.i_data_to_write\[0\]
+ uartUnit.fifoRX._048_ vssd1 vssd1 vccd1 vccd1 uartUnit.fifoRX._018_ sky130_fd_sc_hd__mux2_1
XFILLER_39_257 vssd1 vssd1 vccd1 vccd1 sky130_fd_sc_hd__fill_2
XuartUnit.uartTxUnit._162_ net56 uartUnit.uartTxUnit._007_ vssd1 vssd1 vccd1 vccd1
+ uartUnit.uartTxUnit.s\[3\] sky130_fd_sc_hd__dfxtp_1
XuartUnit.uartTxUnit._093_ uartUnit.uartTxUnit._051_ uartUnit.uartTxUnit._052_ net40
+ vssd1 vssd1 vccd1 vccd1 uartUnit.uartTxUnit._001_ sky130_fd_sc_hd__a21oi_1
XFILLER_42_20 vssd1 vssd1 vccd1 vccd1 sky130_fd_sc_hd__decap_8
XFILLER_13_102 vssd1 vssd1 vccd1 vccd1 sky130_fd_sc_hd__decap_8
XFILLER_13_113 vccd1 vssd1 vccd1 vssd1 sky130_ef_sc_hd__decap_12
Xalu_uart_interfaceUnit._155_ aluUnit.i_data_a\[7\] alu_uart_interfaceUnit._043_ alu_uart_interfaceUnit._073_
+ net36 vssd1 vssd1 vccd1 vccd1 alu_uart_interfaceUnit._021_ sky130_fd_sc_hd__o211a_1
Xalu_uart_interfaceUnit._224_ net57 alu_uart_interfaceUnit._036_ vssd1 vssd1 vccd1
+ vccd1 alu_uart_interfaceUnit.o_data_to_write\[6\] sky130_fd_sc_hd__dfxtp_1
XFILLER_44_282 vssd1 vssd1 vccd1 vccd1 sky130_fd_sc_hd__decap_8
XFILLER_29_290 vssd1 vssd1 vccd1 vccd1 sky130_fd_sc_hd__fill_1
XuartUnit.fifoRX._148_ net42 uartUnit.fifoRX._014_ vssd1 vssd1 vccd1 vccd1 uartUnit.fifoRX.array\[0\]\[4\]
+ sky130_fd_sc_hd__dfxtp_1
XTAP_TAPCELL_ROW_14_174 vssd1 vccd1 sky130_fd_sc_hd__tapvpwrvgnd_1
XuartUnit.fifoRX._079_ uartUnit.fifoRX.array\[2\]\[1\] uartUnit.fifoRX.i_data_to_write\[1\]
+ uartUnit.fifoRX._046_ vssd1 vssd1 vccd1 vccd1 uartUnit.fifoRX._003_ sky130_fd_sc_hd__mux2_1
XFILLER_27_238 vssd1 vssd1 vccd1 vccd1 sky130_fd_sc_hd__fill_1
XuartUnit.uartTxUnit._145_ uartUnit.uartTxUnit.send_byte\[4\] net5 uartUnit.uartTxUnit._033_
+ net16 vssd1 vssd1 vccd1 vccd1 uartUnit.uartTxUnit._015_ sky130_fd_sc_hd__o211a_1
XTAP_TAPCELL_ROW_37_288 vssd1 vccd1 sky130_fd_sc_hd__tapvpwrvgnd_1
XFILLER_35_260 vccd1 vssd1 vccd1 vssd1 sky130_ef_sc_hd__decap_12
XFILLER_10_116 vssd1 vssd1 vccd1 vccd1 sky130_fd_sc_hd__decap_8
XFILLER_10_149 vssd1 vssd1 vccd1 vccd1 sky130_fd_sc_hd__decap_3
XFILLER_12_45 vssd1 vssd1 vccd1 vccd1 sky130_fd_sc_hd__decap_6